
#######################################################################
#
#                 Cambridge Crystallographic Data Centre
#                                CCDC 
#
#######################################################################
#
# If this CIF has been generated from an entry in the Cambridge 
# Structural Database, then it will include bibliographic, chemical, 
# crystal, experimental, refinement or atomic coordinate data resulting 
# from the CCDC's data processing and validation procedures.
#
#######################################################################

data_FeBDP
_symmetry_cell_setting           monoclinic
_symmetry_space_group_name_H-M   'C 2/c'
_symmetry_Int_Tables_number      15
_space_group_name_Hall           '-C 2yn'
loop_
_symmetry_equiv_pos_site_id
_symmetry_equiv_pos_as_xyz
1 -x,-y,-z
2 -x,y,1/2-z
3 1/2-x,1/2-y,-z
4 1/2-x,1/2+y,1/2-z
5 x,-y,1/2+z
6 x,y,z
7 1/2+x,1/2-y,1/2+z
8 1/2+x,1/2+y,z
_cell_length_a                   25.0855(15)
_cell_length_b                   6.88777(32)
_cell_length_c                   6.98491(47)
_cell_angle_alpha                90
_cell_angle_beta                 91.6527(63)
_cell_angle_gamma                90
_cell_volume                     1206.37
loop_
_atom_site_label
_atom_site_type_symbol
_atom_site_fract_x
_atom_site_fract_y
_atom_site_fract_z
C7 C 0.6655317 0.2287307 0.0216213
C1 C 0.6080968 0.1269555 0.1620692
C2 C 0.6006676 0.2668294 -0.1206837
C3 C 0.6359315 0.213319 0.02117181
C4 C 0.6951318 0.2441424 0.02207079
C5 C 0.7832996 0.1347155 0.1147484
C6 C 0.7284313 0.1288579 0.1368192
N1 N 0.5556301 0.1270903 0.107293
N2 N 0.5510386 0.2135371 -0.06745791
H1 H 0.6227332 0.0755578 0.2783393
H2 H 0.6092035 0.330292 -0.236602
H5 H 0.8060582 0.0559239 0.1931736
H6 H 0.7136902 0.0460629 0.2303287
C7 H 0.8344683 0.2712693 -0.0216213
C1 C 0.8919032 0.3730445 -0.1620692
C2 C 0.8993324 0.2331706 0.1206837
C3 C 0.8640685 0.286681 -0.02117181
C4 C 0.8048682 0.2558576 -0.02207079
C5 C 0.7167004 0.3652845 -0.1147484
C6 C 0.7715687 0.3711421 -0.1368192
N1 N 0.9443699 0.3729097 -0.107293
N2 N 0.9489614 0.2864629 0.06745791
H1 H 0.8772668 0.4244422 -0.2783393
H2 H 0.8907965 0.169708 0.236602
H5 H 0.6939418 0.4440761 -0.1931736
H6 H 0.7863098 0.4539371 -0.2303287
Fe Fe 0.5 -0.04157(74) 0.25
N1 N 0.4443699 0.1270903 0.392707
N2 N 0.4489614 -0.2135371 0.06745791
N2 N 0.5510386 -0.2135371 0.43254209
Fe Fe 0.5 0.04157(74) -0.25
Fe Fe 1.0 0.54157(74) -0.25
Fe Fe 1.0 0.45843(74) 0.25
C7 C 0.6655317 0.7712693 0.5216213
C1 C 0.6080968 0.8730445 0.6620692
C2 C 0.6006676 0.7331706 0.3793163
C3 C 0.6359315 0.786681 0.52117181
C4 C 0.6951318 0.7558576 0.52207079
C5 C 0.7832996 0.8652845 0.6147484
C6 C 0.7284313 0.8711421 0.6368192
N1 N 0.5556301 0.8729097 0.607293
N2 N 0.5510386 0.7864629 0.43254209
H1 H 0.6227332 0.9244422 0.7783393
H2 H 0.6092035 0.669708 0.263398
H5 H 0.8060582 0.9440761 0.6931736
H6 H 0.7136902 0.9539371 0.7303287
C7 H 0.8344683 0.7287307 0.4783787
C1 C 0.8919032 0.6269555 0.3379308
C2 C 0.8993324 0.7668294 0.6206837
C3 C 0.8640685 0.713319 0.47882819
C4 C 0.8048682 0.7441424 0.47792921
C5 C 0.7167004 0.6347155 0.3852516
C6 C 0.7715687 0.6288579 0.3631808
N1 N 0.9443699 0.6270903 0.392707
N2 N 0.9489614 0.7135371 0.56745791
H1 H 0.8772668 0.5755578 0.2216607
H2 H 0.8907965 0.830292 0.736602
H5 H 0.6939418 0.5559239 0.3068264
H6 H 0.7863098 0.5460629 0.2696713
Fe Fe 0.5 1.04157(74) 0.75
N1 N 0.4443699 0.8729097 0.892707
N2 N 0.4489614 1.2135371 0.56745791
N2 N 0.5510386 1.2135371 0.93254209
Fe Fe 0.5 0.95843(74) 0.25
Fe Fe 1.0 0.54157(74) 0.75
C7 C 0.1655317 0.7287307 0.0216213
C1 C 0.1080968 0.6269555 0.1620692
C2 C 0.1006676 0.7668294 -0.1206837
C3 C 0.1359315 0.713319 0.02117181
C4 C 0.1951318 0.7441424 0.02207079
C5 C 0.2832996 0.6347155 0.1147484
C6 C 0.2284313 0.6288579 0.1368192
N1 N 0.0556301 0.6270903 0.107293
N2 N 0.0510386 0.7135371 -0.06745791
H1 H 0.1227332 0.5755578 0.2783393
H2 H 0.1092035 0.830292 -0.236602
H5 H 0.3060582 0.5559239 0.1931736
H6 H 0.2136902 0.5460629 0.2303287
C7 H 0.3344683 0.7712693 -0.0216213
C1 C 0.3919032 0.8730445 -0.1620692
C2 C 0.3993324 0.7331706 0.1206837
C3 C 0.3640685 0.786681 -0.02117181
C4 C 0.3048682 0.7558576 -0.02207079
C5 C 0.2167004 0.8652845 -0.1147484
C6 C 0.2715687 0.8711421 -0.1368192
N1 N 0.4443699 0.8729097 -0.107293
N2 N 0.4489614 0.7864629 0.06745791
H1 H 0.3772668 0.9244422 -0.2783393
H2 H 0.3907965 0.669708 0.236602
H5 H 0.1939418 0.9440761 -0.1931736
H6 H 0.2863098 0.9539371 -0.2303287
Fe Fe 0.0 0.45843(74) 0.25
N1 N -0.0556301 0.6270903 0.392707
N2 N -0.0510386 0.2864629 0.06745791
N2 N 0.0510386 0.2864629 0.43254209
Fe Fe 0.0 0.54157(74) -0.25
Fe Fe 0.5 1.04157(74) -0.25
C7 C 0.1655317 0.2712693 0.5216213
C1 C 0.1080968 0.3730445 0.6620692
C2 C 0.1006676 0.2331706 0.3793163
C3 C 0.1359315 0.286681 0.52117181
C4 C 0.1951318 0.2558576 0.52207079
C5 C 0.2832996 0.3652845 0.6147484
C6 C 0.2284313 0.3711421 0.6368192
N1 N 0.0556301 0.3729097 0.607293
H1 H 0.1227332 0.4244422 0.7783393
H2 H 0.1092035 0.169708 0.263398
H5 H 0.3060582 0.4440761 0.6931736
H6 H 0.2136902 0.4539371 0.7303287
C7 H 0.3344683 0.2287307 0.4783787
C1 C 0.3919032 0.1269555 0.3379308
C2 C 0.3993324 0.2668294 0.6206837
C3 C 0.3640685 0.213319 0.47882819
C4 C 0.3048682 0.2441424 0.47792921
C5 C 0.2167004 0.1347155 0.3852516
C6 C 0.2715687 0.1288579 0.3631808
N2 N 0.4489614 0.2135371 0.56745791
H1 H 0.3772668 0.0755578 0.2216607
H2 H 0.3907965 0.330292 0.736602
H5 H 0.1939418 0.0559239 0.3068264
H6 H 0.2863098 0.0460629 0.2696713
Fe Fe 0.0 0.54157(74) 0.75
N1 N -0.0556301 0.3729097 0.892707
N2 N -0.0510386 0.7135371 0.56745791
N2 N 0.0510386 0.7135371 0.93254209
Fe Fe 0.5 0.04157(74) 0.75
C7 C 0.3344683 0.2287307 0.4783787
C7 H 0.1655317 0.2712693 0.5216213
C7 C 0.3344683 0.7712693 0.9783787
C1 C 0.3919032 0.8730445 0.8379308
C2 C 0.3993324 0.7331706 1.1206837
C3 C 0.3640685 0.786681 0.97882819
C4 C 0.3048682 0.7558576 0.97792921
C5 C 0.2167004 0.8652845 0.8852516
C6 C 0.2715687 0.8711421 0.8631808
N2 N 0.4489614 0.7864629 1.06745791
H1 H 0.3772668 0.9244422 0.7216607
H2 H 0.3907965 0.669708 1.236602
H5 H 0.1939418 0.9440761 0.8068264
H6 H 0.2863098 0.9539371 0.7696713
C7 H 0.1655317 0.7287307 1.0216213
C1 C 0.1080968 0.6269555 1.1620692
C2 C 0.1006676 0.7668294 0.8793163
C3 C 0.1359315 0.713319 1.02117181
C4 C 0.1951318 0.7441424 1.02207079
C5 C 0.2832996 0.6347155 1.1147484
C6 C 0.2284313 0.6288579 1.1368192
N1 N 0.0556301 0.6270903 1.107293
H1 H 0.1227332 0.5755578 1.2783393
H2 H 0.1092035 0.830292 0.763398
H5 H 0.3060582 0.5559239 1.1931736
H6 H 0.2136902 0.5460629 1.2303287
Fe Fe 0.5 0.95843(74) 1.25
Fe Fe 0.0 0.45843(74) 1.25
C7 C 0.8344683 0.7287307 0.4783787
C7 H 0.6655317 0.7712693 0.5216213
N1 N 1.0556301 0.6270903 0.107293
N2 N 1.0510386 0.2864629 0.43254209
C7 C 0.8344683 0.2712693 0.9783787
C1 C 0.8919032 0.3730445 0.8379308
C2 C 0.8993324 0.2331706 1.1206837
C3 C 0.8640685 0.286681 0.97882819
C4 C 0.8048682 0.2558576 0.97792921
C5 C 0.7167004 0.3652845 0.8852516
C6 C 0.7715687 0.3711421 0.8631808
N1 N 0.9443699 0.3729097 0.892707
N2 N 0.9489614 0.2864629 1.06745791
H1 H 0.8772668 0.4244422 0.7216607
H2 H 0.8907965 0.169708 1.236602
H5 H 0.6939418 0.4440761 0.8068264
H6 H 0.7863098 0.4539371 0.7696713
C7 H 0.6655317 0.2287307 1.0216213
C1 C 0.6080968 0.1269555 1.1620692
C2 C 0.6006676 0.2668294 0.8793163
C3 C 0.6359315 0.213319 1.02117181
C4 C 0.6951318 0.2441424 1.02207079
C5 C 0.7832996 0.1347155 1.1147484
C6 C 0.7284313 0.1288579 1.1368192
N1 N 0.5556301 0.1270903 1.107293
N2 N 0.5510386 0.2135371 0.93254209
H1 H 0.6227332 0.0755578 1.2783393
H2 H 0.6092035 0.330292 0.763398
H5 H 0.8060582 0.0559239 1.1931736
H6 H 0.7136902 0.0460629 1.2303287
N1 N 1.0556301 0.3729097 0.607293
N2 N 1.0510386 0.7135371 0.93254209
Fe Fe 1.0 0.45843(74) 1.25
Fe Fe 0.5 -0.04157(74) 1.25

#END
